%NProcShared=36 
%mem=16GB 
%chk=BTZ-Neutral-wb97xd-999.chk 
#p wb97xd/6-31+G(d,p) opt(MaxCycles=100) freq scf(xqc, MaxConventional=200) scrf(smd,solvent=acetonitrile) 

CCOCN(C(C)=O)c1c(OC)c(C#N)c(N(C)C)c2nsnc12 0 1

0 1
C	4.1648		1.9686		2.0782
C	2.667		1.7236		2.1379
O	2.2034		0.9881		1.0087
C	2.5288		-0.4008		1.0735
N	1.8121		-1.1302		0.0319
C	2.4397		-2.2413		-0.516
C	1.6584		-3.1392		-1.4486
O	3.5911		-2.5646		-0.2079
C	0.5346		-0.6382		-0.3685
C	-0.5019		-0.3598		0.5607
O	-0.2916		-0.6874		1.8927
C	-0.6348		-2.055		2.1385
C	-1.7445		0.2665		0.2237
C	-2.6404		0.5693		1.3087
N	-3.3695		0.7993		2.1832
C	-2.1062		0.6203		-1.1086
N	-3.3163		1.2025		-1.5008
C	-3.3359		2.6601		-1.3909
C	-4.5583		0.5172		-1.1559
C	-1.082		0.3507		-2.0827
N	-1.1724		0.6175		-3.3997
S	0.2646		0.1846		-4.09
N	1.0698		-0.3939		-2.7672
C	0.2421		-0.2743		-1.7127
H	4.7233		1.0363		2.2034
H	4.4743		2.6576		2.8701
H	4.4507		2.3887		1.1077
H	2.3822		1.2202		3.0687
H	2.1502		2.6888		2.119
H	3.6078		-0.5147		0.9337
H	2.2573		-0.8321		2.0438
H	1.9588		-4.1755		-1.2602
H	0.5813		-3.0897		-1.278
H	1.8964		-2.8967		-2.4864
H	-1.6959		-2.2375		1.9398
H	-0.4447		-2.2606		3.1958
H	-0.0173		-2.7372		1.5452
H	-2.446		3.1085		-1.8495
H	-4.2093		3.0636		-1.9158
H	-3.3902		2.981		-0.3444
H	-5.3338		0.7873		-1.8813
H	-4.4424		-0.5723		-1.1968
H	-4.9253		0.8008		-0.1644

